/*--------------------------------*- C++ -*----------------------------------*\
| =========                 |                                                 |
| \\      /  F ield         | OpenFOAM: The Open Source CFD Toolbox           |
|  \\    /   O peration     | Version:  2.4.0                                 |
|   \\  /    A nd           | Web:      www.OpenFOAM.org                      |
|    \\/     M anipulation  |                                                 |
\*---------------------------------------------------------------------------*/
FoamFile
{
    version     2.0;
    format      ascii;
    class       dictionary;
    location    "constant";
    object      turbulenceProperties;
}
// * * * * * * * * * * * * * * * * * * * * * * * * * * * * * * * * * * * * * //

simulationType  LES;

LES
{
    LESModel             SpalartAllmarasIDDES;

    turbulence           on;

    printCoefficients    on;

    delta                IDDESDelta;

    maxDeltaxyzCoeffs
    {
        deltaCoeff       2;
        cw               0.12;
    }

    IDDESDeltaCoeffs
    {
        deltaCoeff       2;
        cw               0.12;
    }
}

// ************************************************************************* //
