/*--------------------------------*- C++ -*----------------------------------*\
| =========                 |                                                 |
| \\      /  F ield         | OpenFOAM: The Open Source CFD Toolbox           |
|  \\    /   O peration     | Version:  2.2.x                                 |
|   \\  /    A nd           | Web:      www.OpenFOAM.org                      |
|    \\/     M anipulation  |                                                 |
\*---------------------------------------------------------------------------*/
FoamFile
{
    version     2.0;
    format      ascii;
    class       dictionary;
    object      changeDictionaryDict;
}
// * * * * * * * * * * * * * * * * * * * * * * * * * * * * * * * * * * * * * //

dictionaryReplacement
{
    boundary
    {
        periodic1
        {
            type            cyclicAMI;
            neighbourPatch  periodic2;
            transform       translational;
            separationVector (0 0 -0.34290016);
        }
        periodic2
        {
            type            cyclicAMI;
            neighbourPatch  periodic1;
            transform       translational;
            separationVector (0 0 0.34290016);
        }
    }
}
// ************************************************************************* //
