/*--------------------------------*- C++ -*----------------------------------*\
| =========                 |                                                 |
| \\      /  F ield         | OpenFOAM: The Open Source CFD Toolbox           |
|  \\    /   O peration     | Version:  2.4.0                                 |
|   \\  /    A nd           | Web:      www.OpenFOAM.org                      |
|    \\/     M anipulation  |                                                 |
\*---------------------------------------------------------------------------*/
FoamFile
{
    version     2.0;
    format      ascii;
    class       dictionary;
    object      fvSolution;
}
// * * * * * * * * * * * * * * * * * * * * * * * * * * * * * * * * * * * * * //

solvers
{
    p
    {
        solver          GAMG;
        tolerance       1e-6;
        relTol          0.01;
        smoother        DIC;

        cacheAgglomeration true;
        nCellsInCoarsestLevel 1000;
        agglomerator    faceAreaPair;
        mergeLevels     1;
    };

    pFinal
    {
        $p;
        smoother        DIC;
        tolerance       1e-8;
        relTol          0;
    };

    "(U|nuTilda)"
    {
        solver          smoothSolver;
        smoother        DILU;
        tolerance       1e-6;
        relTol          0;
    };
}

PISO
{
    nCorrectors     3;
    nNonOrthogonalCorrectors 0;
}

// ************************************************************************* //
