/*--------------------------------*- C++ -*----------------------------------*\
| =========                 |                                                 |
| \\      /  F ield         | OpenFOAM: The Open Source CFD Toolbox           |
|  \\    /   O peration     | Version:  2.4.0                                 |
|   \\  /    A nd           | Web:      www.OpenFOAM.org                      |
|    \\/     M anipulation  |                                                 |
\*---------------------------------------------------------------------------*/
FoamFile
{
    version     2.0;
    format      ascii;
    class       featureEdgeMesh;
    location    "constant/triSurface";
    object      surface.eMesh;
}
// * * * * * * * * * * * * * * * * * * * * * * * * * * * * * * * * * * * * * //


// points:

784
(
(109.882675 72.0430756 8.57250023)
(93.1885834 88.7371674 8.57250023)
(116.814079 62.5460663 8.57250023)
(83.6915741 95.6685715 8.57250023)
(101.967804 80.8223038 8.57250023)
(-85.1293106 42.0732079 8.57250023)
(-20.9277229 106.274796 8.57250023)
(-10.3050737 109.887901 8.57250023)
(-74.5230865 62.5460663 8.57250023)
(-31.351881 101.530861 8.57250023)
(-80.385376 52.497364 8.57250023)
(-88.7424088 31.4505692 8.57250023)
(-91.246315 20.7983532 8.57250023)
(0.347119987 112.391785 8.57250023)
(-50.8975792 88.737175 8.57250023)
(-67.5916748 72.0430756 8.57250023)
(-41.4005737 95.6685867 8.57249928)
(-59.6767998 80.8222961 8.57250023)
(-2.8097949 0.519958973 8.57249928)
(-92.6921463 10.2703438 8.57250023)
(-2.84594107 0.256758988 8.57249928)
(-2.7471981 0.786264002 8.57250023)
(-2.65686989 1.05183101 8.57250023)
(-2.5382719 1.31243396 8.57249928)
(-2.39171004 1.56364 8.57250023)
(-2.21842194 1.80107105 8.57250023)
(-2.02055812 2.02055693 8.57250023)
(-1.801072 2.21842098 8.57250023)
(-1.56365204 2.39171505 8.57249928)
(-1.31243396 2.53827095 8.57249928)
(-1.051844 2.65687299 8.57250023)
(-0.786271989 2.74719596 8.57250023)
(-0.519972026 2.80979705 8.57250023)
(21.1454945 114.300003 8.57250023)
(-0.256758988 2.84594107 8.57249928)
(-1.99999999e-06 2.85749793 8.57250023)
(0.256754011 2.84594011 8.57250023)
(0.519948006 2.80979705 8.57250023)
(10.8751411 113.837624 8.57250023)
(0.786264002 2.7471981 8.57250023)
(63.2187157 106.274796 8.57250023)
(73.642868 101.530861 8.57249928)
(52.5960655 109.887901 8.57250023)
(41.9438477 112.391808 8.57250023)
(31.4158497 113.837624 8.57250023)
(122.676353 52.4973717 8.57249928)
(127.420311 42.0732269 8.57250023)
(73.642868 -101.530861 8.57249928)
(41.9438744 -112.3918 8.57249928)
(31.4158611 -113.837639 8.57249928)
(21.1454945 -114.300003 8.57250023)
(63.2187271 -106.274811 8.57250023)
(52.5960846 -109.887909 8.57250023)
(10.8751087 -113.837639 8.57250023)
(131.033401 -31.4506111 8.57250023)
(133.537292 -20.7983761 8.57249928)
(134.983139 -10.2703619 8.57249928)
(127.420296 -42.0732307 8.57250023)
(122.676353 -52.4973717 8.57249928)
(135.445496 0 8.57250023)
(134.983139 10.2703619 8.57249928)
(1.05183101 -2.65686989 8.57250023)
(0.786265016 -2.7471981 8.57250023)
(0.519959986 -2.8097949 8.57249928)
(1.31243396 -2.53827095 8.57249928)
(1.56364906 -2.3917191 8.57250023)
(0.256754011 -2.84594011 8.57250023)
(9.00000032e-06 -2.8575089 8.57250023)
(-0.256758988 -2.84594107 8.57249928)
(-0.519958973 -2.8097949 8.57249928)
(-0.786271989 -2.74719596 8.57250023)
(-1.05183101 -2.65686989 8.57250023)
(-1.31244504 -2.53827 8.57250023)
(-1.56365204 -2.3917191 8.57250023)
(-1.801072 -2.21844196 8.57250023)
(-2.02055693 -2.02055812 8.57250023)
(-2.2184329 -1.80108202 8.57250023)
(-2.39171004 -1.56366098 8.57250023)
(-2.53828192 -1.312433 8.57250023)
(-2.65686989 -1.05183101 8.57250023)
(-2.74720907 -0.786260009 8.57250023)
(-2.8097949 -0.519959986 8.57249928)
(-92.6921539 -10.2703762 8.57250023)
(-2.84594107 -0.256758988 8.57249928)
(-93.1545029 0 8.57250023)
(-2.85750008 -0 8.57250023)
(133.537292 20.7983761 8.57249928)
(131.033386 31.4505787 8.57250023)
(2.53827095 1.31243396 8.57249928)
(2.65686107 1.05183196 8.57250023)
(2.21842909 1.80107701 8.57250023)
(2.39171505 1.56365204 8.57249928)
(2.80978489 0.519959986 8.57250023)
(2.7471981 0.786265016 8.57250023)
(2.845927 0.256765991 8.57250023)
(1.80107701 2.21843004 8.57250023)
(1.56365895 2.3917079 8.57250023)
(1.31243396 2.5382719 8.57249928)
(2.02054691 2.02056003 8.57250023)
(1.05181897 2.65687299 8.57250023)
(2.65686989 -1.05183101 8.57250023)
(2.74718404 -0.786260009 8.57250023)
(2.39171505 -1.56365204 8.57249928)
(2.5382719 -1.31243396 8.57249928)
(2.84594107 -0.256758988 8.57249928)
(2.85750699 -1.10000001e-05 8.57250023)
(2.8097949 -0.519958973 8.57249928)
(2.02055812 -2.02055693 8.57250023)
(2.21843004 -1.80108202 8.57250023)
(1.80107701 -2.21842909 8.57250023)
(109.882645 -72.0431137 8.57250023)
(83.6915512 -95.6685944 8.57250023)
(93.1885757 -88.737175 8.57250023)
(116.814079 -62.5460892 8.57250023)
(101.967789 -80.822319 8.57250023)
(-20.9277267 -106.274811 8.57250023)
(-85.1293106 -42.0732307 8.57250023)
(-10.3050842 -109.887909 8.57250023)
(-88.7424011 -31.4505844 8.57250023)
(-80.3853607 -52.4973755 8.57250023)
(-31.351923 -101.530838 8.57250023)
(0.347110003 -112.3918 8.57250023)
(-91.2462997 -20.7983761 8.57249928)
(-50.8975792 -88.737175 8.57250023)
(-74.5230865 -62.5460739 8.57249928)
(-67.5916748 -72.0430756 8.57250023)
(-41.4006042 -95.6685715 8.57250023)
(-59.6768112 -80.8223038 8.57250023)
(134.983139 -10.2703619 -8.57249928)
(135.445496 0 -8.57250023)
(133.537292 -20.7983761 -8.57249928)
(131.033401 -31.4506111 -8.57250023)
(127.420296 -42.0732307 -8.57250023)
(122.676353 -52.4973717 -8.57249928)
(116.814079 -62.5460892 -8.57250023)
(109.882645 -72.0431137 -8.57250023)
(101.967789 -80.822319 -8.57250023)
(93.1885757 -88.737175 -8.57250023)
(83.6915512 -95.6685944 -8.57250023)
(73.642868 -101.530861 -8.57250023)
(63.2187271 -106.274811 -8.57250023)
(52.5960846 -109.887909 -8.57250023)
(41.9438744 -112.3918 -8.57249928)
(31.4158611 -113.837639 -8.57249928)
(21.1454945 -114.300003 -8.57250023)
(10.8751087 -113.837639 -8.57250023)
(0.347110003 -112.3918 -8.57250023)
(-10.3050842 -109.887909 -8.57250023)
(-20.9277267 -106.274811 -8.57250023)
(-31.351923 -101.530838 -8.57250023)
(-41.4006042 -95.6685715 -8.57250023)
(-50.8975792 -88.737175 -8.57250023)
(-59.6768112 -80.8223038 -8.57250023)
(-67.5916748 -72.0430756 -8.57250023)
(-74.5230865 -62.5460739 -8.57249928)
(-80.3853607 -52.4973755 -8.57250023)
(-85.1293106 -42.0732307 -8.57250023)
(-88.7424011 -31.4505844 -8.57250023)
(-91.2462997 -20.7983761 -8.57249928)
(-92.6921539 -10.2703762 -8.57250023)
(-93.1545029 0 -8.57250023)
(-92.6921463 10.2703438 -8.57250023)
(-91.246315 20.7983532 -8.57250023)
(-88.7424088 31.4505692 -8.57250023)
(-85.1293106 42.0732079 -8.57250023)
(-80.385376 52.497364 -8.57250023)
(-74.5230865 62.5460663 -8.57250023)
(-67.5916748 72.0430756 -8.57250023)
(-59.6767998 80.8222961 -8.57250023)
(-50.8975792 88.737175 -8.57250023)
(-41.4005737 95.6685867 -8.57249928)
(-31.351881 101.530861 -8.57250023)
(-20.9277229 106.274796 -8.57250023)
(-10.3050737 109.887901 -8.57250023)
(0.347119987 112.391785 -8.57250023)
(10.8751411 113.837624 -8.57250023)
(21.1454945 114.300003 -8.57250023)
(31.4158497 113.837624 -8.57250023)
(41.9438477 112.391808 -8.57250023)
(52.5960655 109.887901 -8.57250023)
(63.2187157 106.274796 -8.57250023)
(73.642868 101.530861 -8.57250023)
(83.6915741 95.6685715 -8.57250023)
(93.1885834 88.7371674 -8.57250023)
(101.967804 80.8223038 -8.57250023)
(109.882675 72.0430756 -8.57250023)
(116.814079 62.5460663 -8.57250023)
(122.676353 52.4973717 -8.57249928)
(127.420311 42.0732269 -8.57250023)
(131.033386 31.4505787 -8.57250023)
(133.537292 20.7983761 -8.57249928)
(134.983139 10.2703619 -8.57249928)
(2.84594107 -0.256758988 -8.57249928)
(2.85750699 -1.10000001e-05 -8.57250023)
(2.8097949 -0.519958973 -8.57249928)
(2.74718404 -0.786260009 -8.57250023)
(2.65686989 -1.05183101 -8.57250023)
(2.5382719 -1.31243396 -8.57249928)
(2.39171505 -1.56365204 -8.57249928)
(2.21843004 -1.80108202 -8.57250023)
(2.02055812 -2.02055693 -8.57250023)
(1.80107701 -2.21842909 -8.57250023)
(1.56364906 -2.3917191 -8.57250023)
(1.31243396 -2.53827095 -8.57249928)
(1.05183101 -2.65686989 -8.57250023)
(0.786265016 -2.7471981 -8.57250023)
(0.519959986 -2.8097949 -8.57249928)
(0.256754011 -2.84594011 -8.57250023)
(9.00000032e-06 -2.8575089 -8.57250023)
(-0.256758988 -2.84594107 -8.57249928)
(-0.519958973 -2.8097949 -8.57249928)
(-0.786271989 -2.74719596 -8.57250023)
(-1.05183101 -2.65686989 -8.57250023)
(-1.31244504 -2.53827 -8.57250023)
(-1.56365204 -2.3917191 -8.57250023)
(-1.801072 -2.21844196 -8.57250023)
(-2.02055693 -2.02055812 -8.57250023)
(-2.2184329 -1.80108202 -8.57250023)
(-2.39171004 -1.56366098 -8.57250023)
(-2.53828192 -1.312433 -8.57250023)
(-2.65686989 -1.05183101 -8.57250023)
(-2.74720907 -0.786260009 -8.57250023)
(-2.8097949 -0.519959986 -8.57249928)
(-2.84594107 -0.256758988 -8.57249928)
(-2.85750008 -0 -8.57250023)
(-2.84595203 0.256765991 -8.57250023)
(-2.8097949 0.519958973 -8.57249928)
(-2.7471981 0.786264002 -8.57250023)
(-2.65686989 1.05183101 -8.57250023)
(-2.5382719 1.31243396 -8.57249928)
(-2.39171004 1.56364 -8.57250023)
(-2.21842194 1.80107105 -8.57250023)
(-2.02055812 2.02055693 -8.57250023)
(-1.801072 2.21842098 -8.57250023)
(-1.56365204 2.39171505 -8.57249928)
(-1.31243396 2.53827095 -8.57249928)
(-1.051844 2.65687299 -8.57250023)
(-0.786271989 2.74719596 -8.57250023)
(-0.519972026 2.80979705 -8.57250023)
(-0.256758988 2.84594107 -8.57249928)
(-1.99999999e-06 2.85749793 -8.57250023)
(0.256754011 2.84594011 -8.57250023)
(0.519948006 2.80979705 -8.57250023)
(0.786264002 2.7471981 -8.57250023)
(1.05181897 2.65687299 -8.57250023)
(1.31243396 2.5382719 -8.57249928)
(1.56365895 2.3917079 -8.57250023)
(1.80107701 2.21843004 -8.57250023)
(2.02054691 2.02056003 -8.57250023)
(2.21842909 1.80107701 -8.57250023)
(2.39171696 1.56365001 -8.57250023)
(2.53827095 1.31243396 -8.57249928)
(2.65686107 1.05183196 -8.57250023)
(2.7471981 0.786265016 -8.57250023)
(2.80978489 0.519959986 -8.57250023)
(2.845927 0.256765991 -8.57250023)
(113.477501 67.3742676 8.57250023)
(88.5197678 92.3320007 8.57250023)
(119.629318 57.9900436 8.57250023)
(97.6776352 84.8959351 8.57250023)
(106.041428 76.5321426 8.57250023)
(79.1355515 98.4838104 8.57250023)
(-82.8987503 47.3210754 8.57250023)
(-87.0766068 36.7758408 8.57250023)
(-15.6303883 108.222107 8.57250023)
(-26.1755695 104.044258 8.57250023)
(-77.5918274 57.5797653 8.57250023)
(-36.4342918 98.7373047 8.57250023)
(-4.97264624 111.275917 8.57250023)
(-91.6521606 18.2762051 8.57250023)
(-90.1304321 26.1181297 8.57250023)
(2.86930108 112.797668 8.57250023)
(-46.228775 92.3320007 8.57250023)
(-63.7504616 76.5321198 8.57250023)
(-71.1865005 67.3742828 8.57250023)
(-55.3866158 84.8959656 8.57250023)
(-2.83108401 0.38775301 8.57250023)
(-92.0972824 15.509963 8.57250023)
(-2.85466099 0.127397999 8.57250023)
(-93.0408478 5.09549999 8.57250023)
(-2.70554996 0.919399023 8.57250023)
(-2.78189397 0.652939022 8.57250023)
(-2.60110807 1.18302095 8.57250023)
(-2.46842909 1.43948805 8.57250023)
(-2.30830598 1.68436396 8.57250023)
(-2.12238908 1.91330004 8.57250023)
(-1.91330194 2.12238789 8.57250023)
(-1.43948901 2.4684279 8.57250023)
(-1.18302298 2.60110593 8.57250023)
(-1.68436503 2.30830503 8.57250023)
(-0.91940099 2.70554805 8.57250023)
(-0.652939975 2.78189301 8.57250023)
(-0.387753993 2.83108211 8.57250023)
(-0.127388999 2.85467005 8.57250023)
(0.127385005 2.85467005 8.57250023)
(0.387739986 2.8310709 8.57250023)
(5.63552189 113.242813 8.57250023)
(16.0499744 114.186363 8.57250023)
(0.652948022 2.78190303 8.57250023)
(68.4665833 104.044235 8.57250023)
(57.9213791 108.222107 8.57250023)
(47.2636375 111.275917 8.57250023)
(78.7253036 98.7373199 8.57250023)
(36.655468 113.242813 8.57250023)
(26.2410164 114.186363 8.57250023)
(119.88282 57.5798073 8.57250023)
(125.189743 47.3210754 8.57250023)
(129.367615 36.7758713 8.57250023)
(78.7252502 -98.7373352 8.57250023)
(79.1355972 -98.4837723 8.57250023)
(68.4666138 -104.044243 8.57250023)
(119.629288 -57.990078 8.57250023)
(119.882805 -57.5797958 8.57250023)
(36.6555328 -113.24279 8.57250023)
(47.2636147 -111.27594 8.57250023)
(26.2410374 -114.186363 8.57250023)
(57.9213791 -108.222107 8.57250023)
(16.049963 -114.186356 8.57250023)
(5.63547897 -113.24279 8.57250023)
(2.86929011 -112.797653 8.57250023)
(132.421432 -26.1181526 8.57250023)
(129.367584 -36.7759171 8.57250023)
(134.38829 -15.5099516 8.57250023)
(125.189774 -47.3210449 8.57250023)
(135.331863 5.09552097 8.57250023)
(135.331863 -5.09547901 8.57250023)
(0.919408023 -2.70555902 8.57250023)
(1.18303001 -2.6011169 8.57250023)
(0.652948022 -2.78190303 8.57250023)
(1.43949699 -2.46843791 8.57250023)
(0.387751013 -2.83106089 8.57250023)
(0.127385005 -2.85464811 8.57250023)
(-0.127388999 -2.85464811 8.57250023)
(-0.387753993 -2.83106089 8.57250023)
(-0.652962029 -2.78189301 8.57250023)
(-0.91940099 -2.70554805 8.57250023)
(-1.18302298 -2.60110593 8.57250023)
(-1.43949997 -2.46843791 8.57250023)
(-1.68435502 -2.30829406 8.57250023)
(-1.91331303 -2.1223979 8.57250023)
(-2.12241101 -1.91330004 8.57250023)
(-2.30830598 -1.68434203 8.57250023)
(-2.46842909 -1.43950903 8.57250023)
(-2.60109711 -1.18303204 8.57250023)
(-2.70556092 -0.919389009 8.57250023)
(-2.83107305 -0.387742013 8.57250023)
(-93.0408707 -5.09552097 8.57250023)
(-92.0972824 -15.509984 8.57250023)
(-2.85466099 -0.127376005 8.57250023)
(-2.78190494 -0.652948976 8.57250023)
(-91.6521454 -18.2762165 8.57250023)
(134.38829 15.509984 8.57250023)
(132.421432 26.1181297 8.57250023)
(2.60110497 1.18302095 8.57250023)
(2.46843696 1.43949795 8.57250023)
(2.70554709 0.919399023 8.57250023)
(2.30830312 1.68436396 8.57250023)
(2.83105898 0.38775301 8.57250023)
(2.78189111 0.652960002 8.57250023)
(2.85465693 0.127397999 8.57250023)
(1.68435097 2.30831599 8.57250023)
(1.43950701 2.4684279 8.57250023)
(1.91329896 2.12240911 8.57250023)
(2.12239695 1.913311 8.57250023)
(1.18303001 2.60109591 8.57250023)
(0.919386983 2.70555902 8.57250023)
(2.70555711 -0.91940999 8.57250023)
(2.60111499 -1.18303204 8.57250023)
(2.78190207 -0.652948976 8.57250023)
(2.46843696 -1.43949795 8.57250023)
(2.85465693 -0.127376005 8.57250023)
(2.83106995 -0.387742013 8.57250023)
(1.91330898 -2.1223979 8.57250023)
(2.12239695 -1.913311 8.57250023)
(2.3082931 -1.68435299 8.57250023)
(1.68435097 -2.30829406 8.57250023)
(113.477478 -67.3742905 8.57250023)
(88.5197678 -92.3320007 8.57250023)
(106.04142 -76.5321732 8.57250023)
(97.6776581 -84.8959351 8.57250023)
(-15.6303778 -108.222115 8.57250023)
(-26.1756134 -104.044235 8.57250023)
(-87.076622 -36.7758522 8.57250023)
(-82.8987503 -47.3210983 8.57250023)
(-36.4343567 -98.7372818 8.57250023)
(-77.5918198 -57.5797958 8.57250023)
(-90.1304321 -26.1181526 8.57250023)
(-4.97260284 -111.27594 8.57250023)
(-46.228756 -92.3320007 8.57250023)
(-71.1865005 -67.3742599 8.57250023)
(-63.7504387 -76.5321426 8.57250023)
(-55.3866463 -84.8959351 8.57250023)
(113.477501 67.3742676 -8.57250023)
(88.5197678 92.3320007 -8.57250023)
(119.629318 57.9900436 -8.57250023)
(97.6776352 84.8959351 -8.57250023)
(106.041428 76.5321426 -8.57250023)
(79.1355515 98.4838104 -8.57250023)
(-82.8987503 47.3210754 -8.57250023)
(-87.0766068 36.7758408 -8.57250023)
(-15.6303883 108.222107 -8.57250023)
(-26.1755695 104.044258 -8.57250023)
(-77.5918274 57.5797653 -8.57250023)
(-36.4342918 98.7373047 -8.57250023)
(-4.97264624 111.275917 -8.57250023)
(-91.6521606 18.2762051 -8.57250023)
(-90.1304321 26.1181297 -8.57250023)
(2.86930108 112.797668 -8.57250023)
(-46.228775 92.3320007 -8.57250023)
(-63.7504616 76.5321198 -8.57250023)
(-71.1865005 67.3742828 -8.57250023)
(-55.3866158 84.8959656 -8.57250023)
(-2.83108401 0.38775301 -8.57250023)
(-92.0972824 15.509963 -8.57250023)
(-2.85466099 0.127397999 -8.57250023)
(-93.0408478 5.09549999 -8.57250023)
(-2.70554996 0.919399023 -8.57250023)
(-2.78189397 0.652939022 -8.57250023)
(-2.60110807 1.18302095 -8.57250023)
(-2.46842909 1.43948805 -8.57250023)
(-2.30830598 1.68436396 -8.57250023)
(-2.12238908 1.91330004 -8.57250023)
(-1.91330194 2.12238789 -8.57250023)
(-1.43948901 2.4684279 -8.57250023)
(-1.18302298 2.60110593 -8.57250023)
(-1.68436503 2.30830503 -8.57250023)
(-0.91940099 2.70554805 -8.57250023)
(-0.652939975 2.78189301 -8.57250023)
(-0.387753993 2.83108211 -8.57250023)
(-0.127388999 2.85467005 -8.57250023)
(0.127385005 2.85467005 -8.57250023)
(0.387739986 2.8310709 -8.57250023)
(5.63552189 113.242813 -8.57250023)
(16.0499744 114.186363 -8.57250023)
(0.652948022 2.78190303 -8.57250023)
(68.4665833 104.044235 -8.57250023)
(57.9213791 108.222107 -8.57250023)
(47.2636375 111.275917 -8.57250023)
(78.7253036 98.7373199 -8.57250023)
(36.655468 113.242813 -8.57250023)
(26.2410164 114.186363 -8.57250023)
(119.88282 57.5798073 -8.57250023)
(125.189743 47.3210754 -8.57250023)
(129.367615 36.7758713 -8.57250023)
(78.7252502 -98.7373352 -8.57250023)
(79.1355972 -98.4837723 -8.57250023)
(68.4666138 -104.044243 -8.57250023)
(119.629288 -57.990078 -8.57250023)
(119.882805 -57.5797958 -8.57250023)
(36.6555328 -113.24279 -8.57250023)
(47.2636147 -111.27594 -8.57250023)
(26.2410374 -114.186363 -8.57250023)
(57.9213791 -108.222107 -8.57250023)
(16.049963 -114.186356 -8.57250023)
(5.63547897 -113.24279 -8.57250023)
(2.86929011 -112.797653 -8.57250023)
(132.421432 -26.1181526 -8.57250023)
(129.367584 -36.7759171 -8.57250023)
(134.38829 -15.5099516 -8.57250023)
(125.189774 -47.3210449 -8.57250023)
(135.331863 5.09552097 -8.57250023)
(135.331863 -5.09547901 -8.57250023)
(0.919408023 -2.70555902 -8.57250023)
(1.18303001 -2.6011169 -8.57250023)
(0.652948022 -2.78190303 -8.57250023)
(1.43949699 -2.46843791 -8.57250023)
(0.387751013 -2.83106089 -8.57250023)
(0.127385005 -2.85464811 -8.57250023)
(-0.127388999 -2.85464811 -8.57250023)
(-0.387753993 -2.83106089 -8.57250023)
(-0.652962029 -2.78189301 -8.57250023)
(-0.91940099 -2.70554805 -8.57250023)
(-1.18302298 -2.60110593 -8.57250023)
(-1.43949997 -2.46843791 -8.57250023)
(-1.68435502 -2.30829406 -8.57250023)
(-1.91331303 -2.1223979 -8.57250023)
(-2.12241101 -1.91330004 -8.57250023)
(-2.30830598 -1.68434203 -8.57250023)
(-2.46842909 -1.43950903 -8.57250023)
(-2.60109711 -1.18303204 -8.57250023)
(-2.70556092 -0.919389009 -8.57250023)
(-2.83107305 -0.387742013 -8.57250023)
(-93.0408707 -5.09552097 -8.57250023)
(-92.0972824 -15.509984 -8.57250023)
(-2.85466099 -0.127376005 -8.57250023)
(-2.78190494 -0.652948976 -8.57250023)
(-91.6521454 -18.2762165 -8.57250023)
(134.38829 15.509984 -8.57250023)
(132.421432 26.1181297 -8.57250023)
(2.60110497 1.18302095 -8.57250023)
(2.46843696 1.43949795 -8.57250023)
(2.70554709 0.919399023 -8.57250023)
(2.30830312 1.68436396 -8.57250023)
(2.83105898 0.38775301 -8.57250023)
(2.78189111 0.652960002 -8.57250023)
(2.85465693 0.127397999 -8.57250023)
(1.68435097 2.30831599 -8.57250023)
(1.43950701 2.4684279 -8.57250023)
(1.91329896 2.12240911 -8.57250023)
(2.12239695 1.913311 -8.57250023)
(1.18303001 2.60109591 -8.57250023)
(0.919386983 2.70555902 -8.57250023)
(2.70555711 -0.91940999 -8.57250023)
(2.60111499 -1.18303204 -8.57250023)
(2.78190207 -0.652948976 -8.57250023)
(2.46843696 -1.43949795 -8.57250023)
(2.85465908 -0.127386004 -8.57250023)
(2.83106995 -0.387742013 -8.57250023)
(1.91330898 -2.1223979 -8.57250023)
(2.12239695 -1.913311 -8.57250023)
(2.3082931 -1.68435299 -8.57250023)
(1.68435097 -2.30829406 -8.57250023)
(113.477478 -67.3742905 -8.57250023)
(88.5197678 -92.3320007 -8.57250023)
(106.04142 -76.5321732 -8.57250023)
(97.6776581 -84.8959351 -8.57250023)
(-15.6303778 -108.222115 -8.57250023)
(-26.1756134 -104.044235 -8.57250023)
(-87.076622 -36.7758522 -8.57250023)
(-82.8987503 -47.3210983 -8.57250023)
(-36.4343567 -98.7372818 -8.57250023)
(-77.5918198 -57.5797958 -8.57250023)
(-90.1304321 -26.1181526 -8.57250023)
(-4.97260284 -111.27594 -8.57250023)
(-46.228756 -92.3320007 -8.57250023)
(-71.1865005 -67.3742599 -8.57250023)
(-63.7504387 -76.5321426 -8.57250023)
(-55.3866463 -84.8959351 -8.57250023)
(21.0181084 2.85465908 8.57250023)
(21.1455002 2.85750008 8.57250023)
(20.7577419 2.8310709 8.57250023)
(20.8887405 2.84594107 8.57250023)
(20.625536 2.80979705 8.57250023)
(20.3592358 2.74719596 8.57250023)
(20.4925346 2.78190303 8.57250023)
(22.1973305 2.65686989 8.57250023)
(22.3285389 2.60109591 8.57250023)
(22.0648956 2.70555305 8.57250023)
(22.4579277 2.53827 8.57250023)
(21.7984524 2.78189802 8.57250023)
(21.9317551 2.74719596 8.57250023)
(22.7091522 2.39171505 8.57250023)
(22.8298492 2.30830503 8.57250023)
(22.5849838 2.46843791 8.57250023)
(22.9465771 2.21842098 8.57250023)
(21.4022579 2.84594107 8.57250023)
(21.5332489 2.83106995 8.57250023)
(21.2728825 2.85465908 8.57250023)
(21.6654549 2.80979705 8.57250023)
(23.2678928 1.91330004 8.57250023)
(23.3639164 1.80108202 8.57250023)
(23.4538002 1.68435299 8.57250023)
(23.1660576 2.02055812 8.57250023)
(23.5372143 1.56365204 8.57250023)
(23.6139336 1.43948805 8.57250023)
(23.0587959 2.1223979 8.57250023)
(23.7466125 1.18302095 8.57250023)
(23.8023682 1.05183196 8.57250023)
(23.8510532 0.919396996 8.57250023)
(23.6837654 1.312433 8.57250023)
(23.8926983 0.786265016 8.57250023)
(23.6139336 -1.43949401 8.57250023)
(23.5372143 -1.56366098 8.57250023)
(23.3639297 -1.80107701 8.57250023)
(23.2679043 -1.913311 8.57250023)
(23.1660557 -2.02056003 8.57250023)
(23.4538002 -1.68435705 8.57250023)
(23.0588055 -2.12240911 8.57250023)
(22.709156 -2.3917191 8.57250023)
(22.5849953 -2.4684329 8.57250023)
(22.8298569 -2.30830002 8.57250023)
(22.4579277 -2.53827 8.57250023)
(22.9465771 -2.21842909 8.57250023)
(21.6654549 -2.80979705 8.57250023)
(21.533247 -2.8310709 8.57250023)
(21.7984543 -2.78190303 8.57250023)
(21.4022598 -2.84594107 8.57250023)
(21.2728825 -2.85465908 8.57250023)
(22.1973267 -2.65687299 8.57250023)
(22.0648842 -2.70554805 8.57250023)
(21.9317551 -2.74719596 8.57250023)
(22.3285275 -2.60110593 8.57250023)
(21.0181084 -2.85465908 8.57250023)
(20.8887291 -2.84594011 8.57250023)
(20.7577419 -2.8310709 8.57250023)
(21.1455002 -2.85750008 8.57250023)
(23.9273987 -0.652960002 8.57250023)
(23.8926983 -0.786265016 8.57250023)
(23.9552917 -0.519959986 8.57250023)
(23.8510532 -0.919396996 8.57250023)
(23.9914417 -0.256758004 8.57250023)
(23.9765663 -0.38775301 8.57250023)
(23.8023682 -1.05183196 8.57250023)
(23.7466068 -1.18302596 8.57250023)
(23.6837654 -1.312433 8.57250023)
(24.0001545 0.127387002 8.57250023)
(24.0030003 0 8.57250023)
(24.0001545 -0.127387002 8.57250023)
(23.9914417 0.256760001 8.57250023)
(23.9765663 0.38775301 8.57250023)
(20.3592358 -2.7471981 8.57250023)
(20.2261028 -2.70555305 8.57250023)
(20.0936642 -2.65687299 8.57250023)
(20.492548 -2.78189802 8.57250023)
(20.625536 -2.80979705 8.57250023)
(19.8330631 -2.53827 8.57250023)
(19.706007 -2.46843791 8.57250023)
(19.9624748 -2.6011169 8.57250023)
(19.5818481 -2.39171505 8.57250023)
(23.9273987 0.652953982 8.57250023)
(23.9552917 0.519959986 8.57250023)
(18.5443993 1.18302095 8.57250023)
(18.6072254 1.312433 8.57250023)
(18.4886227 1.05183196 8.57250023)
(18.6770668 1.43949401 8.57250023)
(18.4399471 0.919389009 8.57250023)
(18.8372002 1.68435597 8.57250023)
(18.9270706 1.80107605 8.57250023)
(18.7537842 1.56365097 8.57250023)
(18.3144245 0.38775301 8.57250023)
(18.3356972 0.519959986 8.57250023)
(18.2995586 0.256758004 8.57250023)
(18.3636017 0.652953029 8.57250023)
(18.3982983 0.786260009 8.57250023)
(18.2908363 0.127387002 8.57250023)
(19.4611435 2.30830002 8.57250023)
(19.5818348 2.3917191 8.57250023)
(19.3444347 2.21842098 8.57250023)
(19.1249352 2.02056003 8.57250023)
(19.2322063 2.12238789 8.57250023)
(19.7060051 2.4684329 8.57250023)
(19.8330631 2.53827 8.57250023)
(19.0231075 1.91329002 8.57250023)
(20.093668 2.65686989 8.57250023)
(20.2261066 2.70554805 8.57250023)
(19.9624748 2.60109591 8.57250023)
(18.5443993 -1.183043 8.57250023)
(18.4886227 -1.05183196 8.57250023)
(18.4399471 -0.919396996 8.57250023)
(18.6072254 -1.312433 8.57250023)
(18.3983021 -0.786265016 8.57250023)
(18.7537975 -1.56366098 8.57250023)
(18.6770668 -1.43949497 8.57250023)
(18.8371906 -1.68435299 8.57250023)
(18.2995548 -0.256765991 8.57250023)
(18.2908363 -0.127387002 8.57250023)
(18.3144245 -0.38775301 8.57250023)
(18.2880001 -9.99999997e-07 8.57250023)
(18.3636017 -0.652953982 8.57250023)
(18.3356972 -0.519959986 8.57250023)
(19.1249352 -2.02056003 8.57250023)
(19.0230961 -1.91330004 8.57250023)
(19.2321949 -2.1223979 8.57250023)
(19.4611416 -2.30830503 8.57250023)
(19.3444233 -2.21843004 8.57250023)
(18.9270744 -1.80108202 8.57250023)
(23.9914417 -0.256758004 -8.57250023)
(24.0001545 -0.127387002 -8.57250023)
(23.9765663 -0.38775301 -8.57250023)
(23.9552917 -0.519959986 -8.57250023)
(23.9273987 -0.652960002 -8.57250023)
(23.8926983 -0.786265016 -8.57250023)
(23.8510532 -0.919396996 -8.57250023)
(23.8023682 -1.05183196 -8.57250023)
(23.7466068 -1.18302596 -8.57250023)
(23.6837654 -1.312433 -8.57250023)
(23.6139336 -1.43949401 -8.57250023)
(23.5372143 -1.56366098 -8.57250023)
(23.4538002 -1.68435705 -8.57250023)
(23.3639297 -1.80107701 -8.57250023)
(23.2679043 -1.913311 -8.57250023)
(23.1660557 -2.02056003 -8.57250023)
(23.0588055 -2.12240911 -8.57250023)
(22.9465771 -2.21842909 -8.57250023)
(22.8298569 -2.30830002 -8.57250023)
(22.709156 -2.3917191 -8.57250023)
(22.5849953 -2.4684329 -8.57250023)
(22.4579277 -2.53827 -8.57250023)
(22.3285275 -2.60110593 -8.57250023)
(22.1973267 -2.65687299 -8.57250023)
(22.0648842 -2.70554805 -8.57250023)
(21.9317551 -2.74719596 -8.57250023)
(21.7984543 -2.78190303 -8.57250023)
(21.6654549 -2.80979705 -8.57250023)
(21.533247 -2.8310709 -8.57250023)
(21.4022598 -2.84594107 -8.57250023)
(21.2728825 -2.85465908 -8.57250023)
(21.1455002 -2.85750008 -8.57250023)
(21.0181084 -2.85465908 -8.57250023)
(20.8887291 -2.84594011 -8.57250023)
(20.7577419 -2.8310709 -8.57250023)
(20.625536 -2.80979705 -8.57250023)
(20.492548 -2.78189802 -8.57250023)
(20.3592358 -2.7471981 -8.57250023)
(20.2261028 -2.70555305 -8.57250023)
(20.0936642 -2.65687299 -8.57250023)
(19.9624748 -2.6011169 -8.57250023)
(19.8330631 -2.53827 -8.57250023)
(19.706007 -2.46843791 -8.57250023)
(19.5818481 -2.39171505 -8.57250023)
(19.4611416 -2.30830503 -8.57250023)
(19.3444233 -2.21843004 -8.57250023)
(19.2321949 -2.1223979 -8.57250023)
(19.1249352 -2.02056003 -8.57250023)
(19.0230961 -1.91330004 -8.57250023)
(18.9270744 -1.80108202 -8.57250023)
(18.8371906 -1.68435299 -8.57250023)
(18.7537975 -1.56366098 -8.57250023)
(18.6770668 -1.43949497 -8.57250023)
(18.6072254 -1.312433 -8.57250023)
(18.5443993 -1.183043 -8.57250023)
(18.4886227 -1.05183196 -8.57250023)
(18.4399471 -0.919396996 -8.57250023)
(18.3983021 -0.786265016 -8.57250023)
(18.3636017 -0.652953982 -8.57250023)
(18.3356972 -0.519959986 -8.57250023)
(18.3144245 -0.38775301 -8.57250023)
(18.2995548 -0.256765991 -8.57250023)
(18.2908363 -0.127387002 -8.57250023)
(18.2880001 -9.99999997e-07 -8.57250023)
(18.2908363 0.127387002 -8.57250023)
(18.2995586 0.256758004 -8.57250023)
(18.3144245 0.38775301 -8.57250023)
(18.3356972 0.519959986 -8.57250023)
(18.3636017 0.652953029 -8.57250023)
(18.3982983 0.786260009 -8.57250023)
(18.4399471 0.919389009 -8.57250023)
(18.4886227 1.05183196 -8.57250023)
(18.5443993 1.18302095 -8.57250023)
(18.6072254 1.312433 -8.57250023)
(18.6770668 1.43949401 -8.57250023)
(18.7537842 1.56365097 -8.57250023)
(18.8372002 1.68435597 -8.57250023)
(18.9270706 1.80107605 -8.57250023)
(19.0231075 1.91329002 -8.57250023)
(19.1249352 2.02056003 -8.57250023)
(19.2322063 2.12238789 -8.57250023)
(19.3444347 2.21842098 -8.57250023)
(19.4611435 2.30830002 -8.57250023)
(19.5818348 2.3917191 -8.57250023)
(19.7060051 2.4684329 -8.57250023)
(19.8330631 2.53827 -8.57250023)
(19.9624748 2.60109591 -8.57250023)
(20.093668 2.65686989 -8.57250023)
(20.2261066 2.70554805 -8.57250023)
(20.3592358 2.74719596 -8.57250023)
(20.4925346 2.78190303 -8.57250023)
(20.625536 2.80979705 -8.57250023)
(20.7577419 2.8310709 -8.57250023)
(20.8887405 2.84594107 -8.57250023)
(21.0181084 2.85465908 -8.57250023)
(21.1455002 2.85750008 -8.57250023)
(21.2728825 2.85465908 -8.57250023)
(21.4022579 2.84594107 -8.57250023)
(21.5332489 2.83106995 -8.57250023)
(21.6654549 2.80979705 -8.57250023)
(21.7984524 2.78189802 -8.57250023)
(21.9317551 2.74719596 -8.57250023)
(22.0648956 2.70555305 -8.57250023)
(22.1973305 2.65686989 -8.57250023)
(22.3285389 2.60109591 -8.57250023)
(22.4579277 2.53827 -8.57250023)
(22.5849838 2.46843791 -8.57250023)
(22.7091522 2.39171505 -8.57250023)
(22.8298492 2.30830503 -8.57250023)
(22.9465771 2.21842098 -8.57250023)
(23.0587959 2.1223979 -8.57250023)
(23.1660576 2.02055812 -8.57250023)
(23.2678928 1.91330004 -8.57250023)
(23.3639164 1.80108202 -8.57250023)
(23.4538002 1.68435299 -8.57250023)
(23.5372143 1.56365204 -8.57250023)
(23.6139336 1.43948805 -8.57250023)
(23.6837654 1.312433 -8.57250023)
(23.7466125 1.18302095 -8.57250023)
(23.8023682 1.05183196 -8.57250023)
(23.8510532 0.919396996 -8.57250023)
(23.8926983 0.786265016 -8.57250023)
(23.9273987 0.652953982 -8.57250023)
(23.9552917 0.519959986 -8.57250023)
(23.9765663 0.38775301 -8.57250023)
(23.9914417 0.256760001 -8.57250023)
(24.0001545 0.127387002 -8.57250023)
(24.0030003 0 -8.57250023)
)


// edges:

1040
(
(528 529)
(530 531)
(532 530)
(531 528)
(533 534)
(534 532)
(535 536)
(537 535)
(536 538)
(539 540)
(540 537)
(541 542)
(543 541)
(542 544)
(538 543)
(545 546)
(547 545)
(546 548)
(548 539)
(549 550)
(550 551)
(552 549)
(553 554)
(551 553)
(555 552)
(556 557)
(557 558)
(559 556)
(558 560)
(554 559)
(544 555)
(529 547)
(561 562)
(563 564)
(564 565)
(566 563)
(565 567)
(562 566)
(568 569)
(570 568)
(569 571)
(572 570)
(567 572)
(573 574)
(575 573)
(574 576)
(576 577)
(578 579)
(579 580)
(580 575)
(581 578)
(582 583)
(583 584)
(585 582)
(577 585)
(571 581)
(586 587)
(588 586)
(587 589)
(590 591)
(591 588)
(592 593)
(593 594)
(594 561)
(589 592)
(595 596)
(596 597)
(598 595)
(597 590)
(599 598)
(600 601)
(601 602)
(603 600)
(604 603)
(605 606)
(607 605)
(606 608)
(602 607)
(584 604)
(609 610)
(560 609)