/*--------------------------------*- C++ -*----------------------------------*\
| =========                 |                                                 |
| \\      /  F ield         | OpenFOAM: The Open Source CFD Toolbox           |
|  \\    /   O peration     | Version:  2.1.x                                 |
|   \\  /    A nd           | Web:      www.OpenFOAM.org                      |
|    \\/     M anipulation  |                                                 |
\*---------------------------------------------------------------------------*/
FoamFile
{
    version     2.0;
    format      ascii;
    class       volScalarField;
    location    "0";
    object      nuSgs;
}
// * * * * * * * * * * * * * * * * * * * * * * * * * * * * * * * * * * * * * //

dimensions      [0 2 -1 0 0 0 0 ];

internalField   uniform 1e-6;

boundaryField
{
    farfield
    {
        type            calculated;
    }

    cylinder1
    {
        type            nutLowReWallFunction;
        value           uniform 1e-6;
    }

    cylinder2
    {
        type            nutLowReWallFunction;
        value           uniform 1e-6;
    }

    periodic1
    {
        type            cyclicAMI;
    }

    periodic2
    {
        type            cyclicAMI;
    }
}


// ************************************************************************* //
