/*--------------------------------*- C++ -*----------------------------------*\
| =========                 |                                                 |
| \\      /  F ield         | OpenFOAM: The Open Source CFD Toolbox           |
|  \\    /   O peration     | Version:  2.1.x                                 |
|   \\  /    A nd           | Web:      www.OpenFOAM.org                      |
|    \\/     M anipulation  |                                                 |
\*---------------------------------------------------------------------------*/
FoamFile
{
    version     2.0;
    format      ascii;
    class       volVectorField;
    location    "0";
    object      U;
}
// * * * * * * * * * * * * * * * * * * * * * * * * * * * * * * * * * * * * * //

dimensions      [0 1 -1 0 0 0 0];

internalField   uniform (43.4 0 0);

boundaryField
{
    farfield
    {
        type            inletOutlet;
        inletValue      uniform (43.4 0 0);
        value           uniform (43.4 0 0);
    }

    cylinder1
    {
        type            fixedValue;
        value           uniform (0 0 0);
    }

    cylinder2
    {
        type            fixedValue;
        value           uniform (0 0 0);
    }

    periodic1
    {
        type            cyclicAMI;
    }

    periodic2
    {
        type            cyclicAMI;
    }
}


// ************************************************************************* //
