/*--------------------------------*- C++ -*----------------------------------*\
| =========                 |                                                 |
| \\      /  F ield         | OpenFOAM: The Open Source CFD Toolbox           |
|  \\    /   O peration     | Version:  2.2.0                                 |
|   \\  /    A nd           | Web:      www.OpenFOAM.org                      |
|    \\/     M anipulation  |                                                 |
\*---------------------------------------------------------------------------*/
FoamFile
{
    version     2.0;
    format      ascii;
    class       dictionary;
    object      blockMeshDict;
}

// * * * * * * * * * * * * * * * * * * * * * * * * * * * * * * * * * * * * * //

convertToMeters 1;


vertices
(
    (-100      -128.5875  -17.145)
    ( 157.175  -128.5875  -17.145)
    ( 157.175   128.5875  -17.145)
    (-100       128.5875  -17.145)
    (-100      -128.5875   17.145)
    ( 157.175  -128.5875   17.145)
    ( 157.175   128.5875   17.145)
    (-100       128.5875   17.145)
);

blocks
(
    hex (0 1 2 3 4 5 6 7) (45 45 6) simpleGrading (1 1 1)
);

edges
(
);

boundary
(
    box
    {
        type patch;
        faces
        (
            (3 7 6 2)
            (0 4 7 3)
            (2 6 5 1)
            (1 5 4 0)
        );
    }

    periodic1
    {
        type patch;
        faces
        (
            (4 5 6 7)
        );
    }

    periodic2
    {
        type patch;
        faces
        (
            (0 3 2 1)
        );
    }
);

// ************************************************************************* //
